Penicillamine_Initial_Configuration
 OpenBabel02042309383D

 20 19  0  0  1  0  0  0  0  0999 V2000
   -0.2270   -1.7200   -0.6340 S   0  0  0  0  0  0  0  0  0  0  0  0
   -2.2278    0.1306    2.4430 O   0  0  0  0  0  0  0  0  0  0  0  0
   -1.0203    2.0471    2.4190 O   0  0  0  0  0  0  0  0  0  0  0  0
    1.2650    0.5029    2.1090 N   0  0  0  0  0  0  0  0  0  0  0  0
    0.0000    0.0000    0.0000 C   0  0  0  0  0  0  0  0  0  0  0  0
    0.0000    0.0000    1.5570 C   0  0  2  0  0  0  0  0  0  0  0  0
   -1.1190    0.8590   -0.6110 C   0  0  0  0  0  0  0  0  0  0  0  0
    1.3580    0.4830   -0.5450 C   0  0  0  0  0  0  0  0  0  0  0  0
   -1.1061    0.8498    2.1790 C   0  0  0  0  0  0  0  0  0  0  0  0
   -0.1195   -1.0251    1.9310 H   0  0  0  0  0  0  0  0  0  0  0  0
   -1.0320    1.9050   -0.2930 H   0  0  0  0  0  0  0  0  0  0  0  0
   -2.1150    0.5100   -0.3170 H   0  0  0  0  0  0  0  0  0  0  0  0
   -1.0780    0.8600   -1.7070 H   0  0  0  0  0  0  0  0  0  0  0  0
    1.4130    0.3990   -1.6380 H   0  0  0  0  0  0  0  0  0  0  0  0
    1.5320    1.5390   -0.3100 H   0  0  0  0  0  0  0  0  0  0  0  0
    2.1900   -0.0910   -0.1210 H   0  0  0  0  0  0  0  0  0  0  0  0
    2.0352   -0.0951    1.8130 H   0  0  0  0  0  0  0  0  0  0  0  0
    1.2421    0.4366    3.1270 H   0  0  0  0  0  0  0  0  0  0  0  0
   -0.1730   -1.4210   -1.9400 H   0  0  0  0  0  0  0  0  0  0  0  0
   -2.9327    0.6855    2.8390 H   0  0  0  0  0  0  0  0  0  0  0  0
  1  5  1  0  0  0  0
  2 20  1  0  0  0  0
  4 18  1  0  0  0  0
  5  6  1  0  0  0  0
  6 10  1  1  0  0  0
  6  4  1  0  0  0  0
  6  9  1  0  0  0  0
  7 12  1  0  0  0  0
  7 11  1  0  0  0  0
  7  5  1  0  0  0  0
  8 15  1  0  0  0  0
  8 16  1  0  0  0  0
  8  5  1  0  0  0  0
  9  3  2  0  0  0  0
  9  2  1  0  0  0  0
 13  7  1  0  0  0  0
 14  8  1  0  0  0  0
 17  4  1  0  0  0  0
 19  1  1  0  0  0  0
M  END
$$$$
