20
input_41
S	-0.227	-1.72	-0.634
O	-1.767023	-1.363003	2.443
O	-2.113049	0.875589	2.419
N	0.624776	1.209458	2.109
C	0	0	0
C	0	0	1.557
C	-1.119	0.859	-0.611
C	1.358	0.483	-0.545
C	-1.392303	-0.084315	2.179
H	0.582338	-0.852052	1.931
H	-1.032	1.905	-0.293
H	-2.115	0.51	-0.317
H	-1.078	0.86	-1.707
H	1.413	0.399	-1.638
H	1.532	1.539	-0.31
H	2.19	-0.091	-0.121
H	1.598376	1.263438	1.813
H	0.650989	1.144397	3.127
H	-0.173	-1.421	-1.94
H	-2.663065	-1.406671	2.839


