20
input_29
S	-0.227	-1.72	-0.634
O	-2.011794	-0.965834	2.443
O	-1.884828	1.295783	2.419
N	0.862583	1.05313	2.109
C	0	0	0
C	0	0	1.557
C	-1.119	0.859	-0.611
C	1.358	0.483	-0.545
C	-1.379408	0.207004	2.179
H	0.392461	-0.954507	1.931
H	-1.032	1.905	-0.293
H	-2.115	0.51	-0.317
H	-1.078	0.86	-1.707
H	1.413	0.399	-1.638
H	1.532	1.539	-0.31
H	2.19	-0.091	-0.121
H	1.826131	0.903508	1.813
H	0.874697	0.984041	3.127
H	-0.173	-1.421	-1.94
H	-2.897334	-0.822249	2.839


