20
input_58
S	-0.227	-1.72	-0.634
O	-1.291309	-1.820074	2.443
O	-2.276716	0.219534	2.419
N	0.243864	1.339277	2.109
C	0	0	0
C	0	0	1.557
C	-1.119	0.859	-0.611
C	1.358	0.483	-0.545
C	-1.306815	-0.487701	2.179
H	0.806009	-0.644562	1.931
H	-1.032	1.905	-0.293
H	-2.115	0.51	-0.317
H	-1.078	0.86	-1.707
H	1.413	0.399	-1.638
H	1.532	1.539	-0.31
H	2.19	-0.091	-0.121
H	1.159141	1.675552	1.813
H	0.287955	1.284723	3.127
H	-0.173	-1.421	-1.94
H	-2.135431	-2.123811	2.839


