20
input_2
S	-0.227	-1.72	-0.634
O	-2.231001	0.052771	2.443
O	-1.091121	2.010245	2.419
N	1.246678	0.546742	2.109
C	0	0	0
C	0	0	1.557
C	-1.119	0.859	-0.611
C	1.358	0.483	-0.545
C	-1.135084	0.81068	2.179
H	-0.083652	-1.028646	1.931
H	-1.032	1.905	-0.293
H	-2.115	0.51	-0.317
H	-1.078	0.86	-1.707
H	1.413	0.399	-1.638
H	1.532	1.539	-0.31
H	2.19	-0.091	-0.121
H	2.037279	-0.024015	1.813
H	1.226106	0.479683	3.127
H	-0.173	-1.421	-1.94
H	-2.954837	0.582733	2.839


