20
input_39
S	-0.227	-1.72	-0.634
O	-1.813515	-1.300505	2.443
O	-2.081204	0.9488	2.419
N	0.666604	1.186917	2.109
C	0	0	0
C	0	0	1.557
C	-1.119	0.859	-0.611
C	1.358	0.483	-0.545
C	-1.394398	-0.035673	2.179
H	0.552247	-0.871856	1.931
H	-1.032	1.905	-0.293
H	-2.115	0.51	-0.317
H	-1.078	0.86	-1.707
H	1.413	0.399	-1.638
H	1.532	1.539	-0.31
H	2.19	-0.091	-0.121
H	1.641496	1.206886	1.813
H	0.690532	1.120981	3.127
H	-0.173	-1.421	-1.94
H	-2.710535	-1.312874	2.839


