20
input_28
S	-0.227	-1.72	-0.634
O	-2.028344	-0.930576	2.443
O	-1.861927	1.32848	2.419
N	0.880831	1.037916	2.109
C	0	0	0
C	0	0	1.557
C	-1.119	0.859	-0.611
C	1.358	0.483	-0.545
C	-1.375585	0.231046	2.179
H	0.375743	-0.961211	1.931
H	-1.032	1.905	-0.293
H	-2.115	0.51	-0.317
H	-1.078	0.86	-1.707
H	1.413	0.399	-1.638
H	1.532	1.539	-0.31
H	2.19	-0.091	-0.121
H	1.841622	0.8715	1.813
H	0.891738	0.968626	3.127
H	-0.173	-1.421	-1.94
H	-2.911243	-0.771559	2.839


