20
input_48
S	-0.227	-1.72	-0.634
O	-1.587744	-1.56819	2.443
O	-2.204006	0.611547	2.419
N	0.472723	1.276584	2.109
C	0	0	0
C	0	0	1.557
C	-1.119	0.859	-0.611
C	1.358	0.483	-0.545
C	-1.37165	-0.253365	2.179
H	0.681837	-0.774732	1.931
H	-1.032	1.905	-0.293
H	-2.115	0.51	-0.317
H	-1.078	0.86	-1.707
H	1.413	0.399	-1.638
H	1.532	1.539	-0.31
H	2.19	-0.091	-0.121
H	1.432488	1.448814	1.813
H	0.50667	1.215203	3.127
H	-0.173	-1.421	-1.94
H	-2.471785	-1.720732	2.839


