20
input_43
S	-0.227	-1.72	-0.634
O	-1.718379	-1.423841	2.443
O	-2.142319	0.801311	2.419
N	0.582185	1.230526	2.109
C	0	0	0
C	0	0	1.557
C	-1.119	0.859	-0.611
C	1.358	0.483	-0.545
C	-1.388513	-0.132854	2.179
H	0.61172	-0.831209	1.931
H	-1.032	1.905	-0.293
H	-2.115	0.51	-0.317
H	-1.078	0.86	-1.707
H	1.413	0.399	-1.638
H	1.532	1.539	-0.31
H	2.19	-0.091	-0.121
H	1.553309	1.318451	1.813
H	0.610654	1.166419	3.127
H	-0.173	-1.421	-1.94
H	-2.612351	-1.498754	2.839


