20
input_45
S	-0.227	-1.72	-0.634
O	-1.667641	-1.482944	2.443
O	-2.168979	0.726057	2.419
N	0.538886	1.250094	2.109
C	0	0	0
C	0	0	1.557
C	-1.119	0.859	-0.611
C	1.358	0.483	-0.545
C	-1.38303	-0.181231	2.179
H	0.640356	-0.809354	1.931
H	-1.032	1.905	-0.293
H	-2.115	0.51	-0.317
H	-1.078	0.86	-1.707
H	1.413	0.399	-1.638
H	1.532	1.539	-0.31
H	2.19	-0.091	-0.121
H	1.50635	1.371858	1.813
H	0.569575	1.18702	3.127
H	-0.173	-1.421	-1.94
H	-2.558454	-1.58901	2.839


