20
input_17
S	-0.227	-1.72	-0.634
O	-2.168639	-0.526452	2.443
O	-1.574232	1.659345	2.419
N	1.062692	0.850776	2.109
C	0	0	0
C	0	0	1.557
C	-1.119	0.859	-0.611
C	1.358	0.483	-0.545
C	-1.306226	0.489275	2.179
H	0.185432	-1.015246	1.931
H	-1.032	1.905	-0.293
H	-2.115	0.51	-0.317
H	-1.078	0.86	-1.707
H	1.413	0.399	-1.638
H	1.532	1.539	-0.31
H	2.19	-0.091	-0.121
H	1.974076	0.50409	1.813
H	1.060177	0.780678	3.127
H	-0.173	-1.421	-1.94
H	-3.004976	-0.201892	2.839


