20
input_14
S	-0.227	-1.72	-0.634
O	-2.19322	-0.412233	2.443
O	-1.485231	1.739459	2.419
N	1.105762	0.793993	2.109
C	0	0	0
C	0	0	1.557
C	-1.119	0.859	-0.611
C	1.358	0.483	-0.545
C	-1.278829	0.556967	2.179
H	0.132044	-1.02356	1.931
H	-1.032	1.905	-0.293
H	-2.115	0.51	-0.317
H	-1.078	0.86	-1.707
H	1.413	0.399	-1.638
H	1.532	1.539	-0.31
H	2.19	-0.091	-0.121
H	1.997753	0.400084	1.813
H	1.099581	0.724122	3.127
H	-0.173	-1.421	-1.94
H	-3.011424	-0.044347	2.839


