20
input_56
S	-0.227	-1.72	-0.634
O	-1.354042	-1.773899	2.443
O	-2.267667	0.298857	2.419
N	0.290456	1.329951	2.109
C	0	0	0
C	0	0	1.557
C	-1.119	0.859	-0.611
C	1.358	0.483	-0.545
C	-1.323039	-0.441796	2.179
H	0.783023	-0.672299	1.931
H	-1.032	1.905	-0.293
H	-2.115	0.51	-0.317
H	-1.078	0.86	-1.707
H	1.413	0.399	-1.638
H	1.532	1.539	-0.31
H	2.19	-0.091	-0.121
H	1.216911	1.634078	1.813
H	0.332616	1.273891	3.127
H	-0.173	-1.421	-1.94
H	-2.20825	-2.047992	2.839


