20
input_49
S	-0.227	-1.72	-0.634
O	-1.560133	-1.595661	2.443
O	-2.214343	0.572988	2.419
N	0.450371	1.28464	2.109
C	0	0	0
C	0	0	1.557
C	-1.119	0.859	-0.611
C	1.358	0.483	-0.545
C	-1.367019	-0.277265	2.179
H	0.695254	-0.762714	1.931
H	-1.032	1.905	-0.293
H	-2.115	0.51	-0.317
H	-1.078	0.86	-1.707
H	1.413	0.399	-1.638
H	1.532	1.539	-0.31
H	2.19	-0.091	-0.121
H	1.406984	1.473594	1.813
H	0.485385	1.22386	3.127
H	-0.173	-1.421	-1.94
H	-2.441378	-1.763608	2.839


