20
input_15
S	-0.227	-1.72	-0.634
O	-2.185691	-0.450447	2.443
O	-1.515363	1.713274	2.419
N	1.091736	0.81317	2.109
C	0	0	0
C	0	0	1.557
C	-1.119	0.859	-0.611
C	1.358	0.483	-0.545
C	-1.288355	0.534564	2.179
H	0.149887	-1.021099	1.931
H	-1.032	1.905	-0.293
H	-2.115	0.51	-0.317
H	-1.078	0.86	-1.707
H	1.413	0.399	-1.638
H	1.532	1.539	-0.31
H	2.19	-0.091	-0.121
H	1.990466	0.434889	1.813
H	1.086776	0.743202	3.127
H	-0.173	-1.421	-1.94
H	-3.010191	-0.096896	2.839


