20
input_16
S	-0.227	-1.72	-0.634
O	-2.177497	-0.488524	2.443
O	-1.545033	1.686566	2.419
N	1.077378	0.8321	2.109
C	0	0	0
C	0	0	1.557
C	-1.119	0.859	-0.611
C	1.358	0.483	-0.545
C	-1.297488	0.511998	2.179
H	0.167685	-1.018328	1.931
H	-1.032	1.905	-0.293
H	-2.115	0.51	-0.317
H	-1.078	0.86	-1.707
H	1.413	0.399	-1.638
H	1.532	1.539	-0.31
H	2.19	-0.091	-0.121
H	1.982573	0.469561	1.813
H	1.07364	0.762056	3.127
H	-0.173	-1.421	-1.94
H	-3.008042	-0.149417	2.839


