20
input_9
S	-0.227	-1.72	-0.634
O	-2.220802	-0.219513	2.443
O	-1.327975	1.862287	2.419
N	1.170755	0.694598	2.109
C	0	0	0
C	0	0	1.557
C	-1.119	0.859	-0.611
C	1.358	0.483	-0.545
C	-1.22542	0.666305	2.179
H	0.042332	-1.031173	1.931
H	-1.032	1.905	-0.293
H	-2.115	0.51	-0.317
H	-1.078	0.86	-1.707
H	1.413	0.399	-1.638
H	1.532	1.539	-0.31
H	2.19	-0.091	-0.121
H	2.02502	0.224446	1.813
H	1.158508	0.625532	3.127
H	-0.173	-1.421	-1.94
H	-3.003829	0.218285	2.839


