20
input_55
S	-0.227	-1.72	-0.634
O	-1.384795	-1.749998	2.443
O	-2.262106	0.338387	2.419
N	0.313623	1.324679	2.109
C	0	0	0
C	0	0	1.557
C	-1.119	0.859	-0.611
C	1.358	0.483	-0.545
C	-1.330548	-0.418639	2.179
H	0.77117	-0.685862	1.931
H	-1.032	1.905	-0.293
H	-2.115	0.51	-0.317
H	-1.078	0.86	-1.707
H	1.413	0.399	-1.638
H	1.532	1.539	-0.31
H	2.19	-0.091	-0.121
H	1.245244	1.612591	1.813
H	0.354798	1.267892	3.127
H	-0.173	-1.421	-1.94
H	-2.243656	-2.009141	2.839


